*Heading
*Node
      1,           5.,   269.776001
      2,           5.,   258.776001
      3,   5.28399992,   247.776001
      4,   5.58500004,   236.776001
      5,   5.90299988,   225.776001
      6,   6.23899984,   218.776001
      7,   6.59399986,   207.776001
      8,   6.96899986,   196.776001
      9,   7.36499977,   185.776001
     10,   7.78399992,   165.576004
     11,   8.22700024,   160.675995
     12,    8.6960001,   149.376007
     13,   9.24499989,   138.675995
     14,    9.9989996,   128.076004
     15,        10.79,   117.575996
     16,   11.7860003,   107.075996
     17,   12.8800001,   97.0759964
     18,   14.3030005,   87.0759964
     19,   15.8059998,   77.4729996
     20,   18.9249992,    68.387001
** ... 112 like lines cut
**
**
*Element, type=T2D2, elset=EAll
  1,  87, 117
  2, 117,  29
  3,  86, 118
  4, 118,  28
  5,  85, 119
  6, 119,  27
  7,  84, 120
  8, 120,  26
  9,  83, 121
 10, 121,  25
 11,  82, 122
 12, 122,  24
 13,  81, 123
 14, 123,  23
 15,  80, 124
 16, 124,  22
 17, 116, 125
 18, 125,  58
 19, 115, 126
 20, 126,  57
** ... 359 like lines cut
*Solid Section, elset=EAll, material=MATERIAL-1
1.,
*Material, name=MATERIAL-1
*Elastic
1000.0
**  
** ----------------------------------------------------------------
** 
** STEP: Step-1
** 
*Step, name=Step-1, nlgeom=no
*Static
1., 1., 1e-05, 1.
** 
** BOUNDARY CONDITIONS
** 
*Boundary
29, 1, 2, 0.0
58, 1, 2, 0.0
87, 1, 2, 0.0
116, 1, 2, 0.0
117, 1, 2, 0.0
125, 1, 2, 0.0
** 
** LOADS
** 
*Cload
1, 1, 1.0
30, 1, 1.0
88, 1, 1.0
** 
** OUTPUT REQUESTS
** 
*Restart, write, frequency=0
** 
** FIELD OUTPUT: F-Output-1
** 
*Output, field, variable=PRESELECT
** 
** HISTORY OUTPUT: H-Output-1
** 
*Output, history, variable=PRESELECT
*End Step
